
Version,
  9.5;                                    !- Version Identifier

Timestep,
  6;                                      !- Number of Timesteps per Hour

LifeCycleCost:Parameters,
  Life Cycle Cost Parameters,             !- Name
  EndOfYear,                              !- Discounting Convention
  ConstantDollar,                         !- Inflation Approach
  0.03,                                   !- Real Discount Rate
  ,                                       !- Nominal Discount Rate
  ,                                       !- Inflation
  ,                                       !- Base Date Month
  2011,                                   !- Base Date Year
  ,                                       !- Service Date Month
  2011,                                   !- Service Date Year
  25,                                     !- Length of Study Period in Years
  ,                                       !- Tax rate
  None;                                   !- Depreciation Method

LifeCycleCost:UsePriceEscalation,
  U.S. Avg  Commercial-Electricity,       !- Name
  Electricity,                            !- Resource
  2011,                                   !- Escalation Start Year
  January,                                !- Escalation Start Month
  0.9838,                                 !- Year Escalation 1
  0.9730,                                 !- Year Escalation 2
  0.9632,                                 !- Year Escalation 3
  0.9611,                                 !- Year Escalation 4
  0.9571,                                 !- Year Escalation 5
  0.9553,                                 !- Year Escalation 6
  0.9539,                                 !- Year Escalation 7
  0.9521,                                 !- Year Escalation 8
  0.9546,                                 !- Year Escalation 9
  0.9550,                                 !- Year Escalation 10
  0.9553,                                 !- Year Escalation 11
  0.9564,                                 !- Year Escalation 12
  0.9575,                                 !- Year Escalation 13
  0.9596,                                 !- Year Escalation 14
  0.9618,                                 !- Year Escalation 15
  0.9614,                                 !- Year Escalation 16
  0.9618,                                 !- Year Escalation 17
  0.9618,                                 !- Year Escalation 18
  0.9593,                                 !- Year Escalation 19
  0.9589,                                 !- Year Escalation 20
  0.9607,                                 !- Year Escalation 21
  0.9625,                                 !- Year Escalation 22
  0.9650,                                 !- Year Escalation 23
  0.9708,                                 !- Year Escalation 24
  0.9751,                                 !- Year Escalation 25
  0.9762,                                 !- Year Escalation 26
  0.9766,                                 !- Year Escalation 27
  0.9766,                                 !- Year Escalation 28
  0.9769,                                 !- Year Escalation 29
  0.9773;                                 !- Year Escalation 30

LifeCycleCost:UsePriceEscalation,
  U.S. Avg  Commercial-Distillate Oil,    !- Name
  FuelOilNo1,                             !- Resource
  2011,                                   !- Escalation Start Year
  January,                                !- Escalation Start Month
  0.9714,                                 !- Year Escalation 1
  0.9730,                                 !- Year Escalation 2
  0.9942,                                 !- Year Escalation 3
  1.0164,                                 !- Year Escalation 4
  1.0541,                                 !- Year Escalation 5
  1.0928,                                 !- Year Escalation 6
  1.1267,                                 !- Year Escalation 7
  1.1580,                                 !- Year Escalation 8
  1.1792,                                 !- Year Escalation 9
  1.1967,                                 !- Year Escalation 10
  1.2200,                                 !- Year Escalation 11
  1.2333,                                 !- Year Escalation 12
  1.2566,                                 !- Year Escalation 13
  1.2709,                                 !- Year Escalation 14
  1.2826,                                 !- Year Escalation 15
  1.2985,                                 !- Year Escalation 16
  1.3102,                                 !- Year Escalation 17
  1.3250,                                 !- Year Escalation 18
  1.3261,                                 !- Year Escalation 19
  1.3282,                                 !- Year Escalation 20
  1.3324,                                 !- Year Escalation 21
  1.3356,                                 !- Year Escalation 22
  1.3431,                                 !- Year Escalation 23
  1.3510,                                 !- Year Escalation 24
  1.3568,                                 !- Year Escalation 25
  1.3606,                                 !- Year Escalation 26
  1.3637,                                 !- Year Escalation 27
  1.3674,                                 !- Year Escalation 28
  1.3706,                                 !- Year Escalation 29
  1.3743;                                 !- Year Escalation 30

LifeCycleCost:UsePriceEscalation,
  U.S. Avg  Commercial-Residual Oil,      !- Name
  FuelOilNo2,                             !- Resource
  2011,                                   !- Escalation Start Year
  January,                                !- Escalation Start Month
  0.8469,                                 !- Year Escalation 1
  0.8257,                                 !- Year Escalation 2
  0.8681,                                 !- Year Escalation 3
  0.8988,                                 !- Year Escalation 4
  0.9289,                                 !- Year Escalation 5
  0.9604,                                 !- Year Escalation 6
  0.9897,                                 !- Year Escalation 7
  1.0075,                                 !- Year Escalation 8
  1.0314,                                 !- Year Escalation 9
  1.0554,                                 !- Year Escalation 10
  1.0861,                                 !- Year Escalation 11
  1.1278,                                 !- Year Escalation 12
  1.1497,                                 !- Year Escalation 13
  1.1620,                                 !- Year Escalation 14
  1.1743,                                 !- Year Escalation 15
  1.1852,                                 !- Year Escalation 16
  1.1948,                                 !- Year Escalation 17
  1.2037,                                 !- Year Escalation 18
  1.2071,                                 !- Year Escalation 19
  1.2119,                                 !- Year Escalation 20
  1.2139,                                 !- Year Escalation 21
  1.2194,                                 !- Year Escalation 22
  1.2276,                                 !- Year Escalation 23
  1.2365,                                 !- Year Escalation 24
  1.2420,                                 !- Year Escalation 25
  1.2461,                                 !- Year Escalation 26
  1.2509,                                 !- Year Escalation 27
  1.2550,                                 !- Year Escalation 28
  1.2591,                                 !- Year Escalation 29
  1.2638;                                 !- Year Escalation 30

LifeCycleCost:UsePriceEscalation,
  U.S. Avg  Commercial-Natural gas,       !- Name
  NaturalGas,                             !- Resource
  2011,                                   !- Escalation Start Year
  January,                                !- Escalation Start Month
  0.9823,                                 !- Year Escalation 1
  0.9557,                                 !- Year Escalation 2
  0.9279,                                 !- Year Escalation 3
  0.9257,                                 !- Year Escalation 4
  0.9346,                                 !- Year Escalation 5
  0.9412,                                 !- Year Escalation 6
  0.9512,                                 !- Year Escalation 7
  0.9645,                                 !- Year Escalation 8
  0.9856,                                 !- Year Escalation 9
  1.0067,                                 !- Year Escalation 10
  1.0222,                                 !- Year Escalation 11
  1.0410,                                 !- Year Escalation 12
  1.0610,                                 !- Year Escalation 13
  1.0787,                                 !- Year Escalation 14
  1.0942,                                 !- Year Escalation 15
  1.1098,                                 !- Year Escalation 16
  1.1220,                                 !- Year Escalation 17
  1.1308,                                 !- Year Escalation 18
  1.1386,                                 !- Year Escalation 19
  1.1486,                                 !- Year Escalation 20
  1.1619,                                 !- Year Escalation 21
  1.1763,                                 !- Year Escalation 22
  1.1918,                                 !- Year Escalation 23
  1.2118,                                 !- Year Escalation 24
  1.2284,                                 !- Year Escalation 25
  1.2439,                                 !- Year Escalation 26
  1.2605,                                 !- Year Escalation 27
  1.2772,                                 !- Year Escalation 28
  1.2938,                                 !- Year Escalation 29
  1.3115;                                 !- Year Escalation 30

LifeCycleCost:UsePriceEscalation,
  U.S. Avg  Commercial-Coal,              !- Name
  Coal,                                   !- Resource
  2011,                                   !- Escalation Start Year
  January,                                !- Escalation Start Month
  0.9970,                                 !- Year Escalation 1
  1.0089,                                 !- Year Escalation 2
  1.0089,                                 !- Year Escalation 3
  0.9941,                                 !- Year Escalation 4
  0.9941,                                 !- Year Escalation 5
  1.0000,                                 !- Year Escalation 6
  1.0030,                                 !- Year Escalation 7
  1.0059,                                 !- Year Escalation 8
  1.0089,                                 !- Year Escalation 9
  1.0119,                                 !- Year Escalation 10
  1.0148,                                 !- Year Escalation 11
  1.0178,                                 !- Year Escalation 12
  1.0208,                                 !- Year Escalation 13
  1.0267,                                 !- Year Escalation 14
  1.0297,                                 !- Year Escalation 15
  1.0356,                                 !- Year Escalation 16
  1.0415,                                 !- Year Escalation 17
  1.0534,                                 !- Year Escalation 18
  1.0564,                                 !- Year Escalation 19
  1.0593,                                 !- Year Escalation 20
  1.0653,                                 !- Year Escalation 21
  1.0712,                                 !- Year Escalation 22
  1.0742,                                 !- Year Escalation 23
  1.0801,                                 !- Year Escalation 24
  1.0831,                                 !- Year Escalation 25
  1.0831,                                 !- Year Escalation 26
  1.0861,                                 !- Year Escalation 27
  1.0890,                                 !- Year Escalation 28
  1.0920,                                 !- Year Escalation 29
  1.0950;                                 !- Year Escalation 30

Building,
  -SmallDataCenterHighITE-ASHRAE 169-2013-2A created: 2024-01-17 10:53:32 +0100, !- Name
  ,                                       !- North Axis {deg}
  City,                                   !- Terrain
  ,                                       !- Loads Convergence Tolerance Value {W}
  ,                                       !- Temperature Convergence Tolerance Value {deltaC}
  ,                                       !- Solar Distribution
  ,                                       !- Maximum Number of Warmup Days
  ;                                       !- Minimum Number of Warmup Days

Zone,
  ComputerRoom ZN,                        !- Name
  -0,                                     !- Direction of Relative North {deg}
  0,                                      !- X Origin {m}
  0,                                      !- Y Origin {m}
  0,                                      !- Z Origin {m}
  ,                                       !- Type
  1,                                      !- Multiplier
  ,                                       !- Ceiling Height {m}
  ,                                       !- Volume {m3}
  ,                                       !- Floor Area {m2}
  ,                                       !- Zone Inside Convection Algorithm
  ,                                       !- Zone Outside Convection Algorithm
  Yes;                                    !- Part of Total Floor Area

BuildingSurface:Detailed,
  Surface 1,                              !- Name
  Floor,                                  !- Surface Type
  Adiabatic GroundContactFloor,           !- Construction Name
  ComputerRoom ZN,                        !- Zone Name
  Ground,                                 !- Outside Boundary Condition
  ,                                       !- Outside Boundary Condition Object
  NoSun,                                  !- Sun Exposure
  NoWind,                                 !- Wind Exposure
  ,                                       !- View Factor to Ground
  ,                                       !- Number of Vertices
  0, 0, 0,                                !- X,Y,Z Vertex 1 {m}
  0, 6.096, 0,                            !- X,Y,Z Vertex 2 {m}
  9.144, 6.096, 0,                        !- X,Y,Z Vertex 3 {m}
  9.144, 0, 0;                            !- X,Y,Z Vertex 4 {m}

BuildingSurface:Detailed,
  Surface 2,                              !- Name
  Wall,                                   !- Surface Type
  Adiabatic Wall,                         !- Construction Name
  ComputerRoom ZN,                        !- Zone Name
  Outdoors,                               !- Outside Boundary Condition
  ,                                       !- Outside Boundary Condition Object
  SunExposed,                             !- Sun Exposure
  WindExposed,                            !- Wind Exposure
  ,                                       !- View Factor to Ground
  ,                                       !- Number of Vertices
  0, 6.096, 4.2672,                       !- X,Y,Z Vertex 1 {m}
  0, 6.096, 0,                            !- X,Y,Z Vertex 2 {m}
  0, 0, 0,                                !- X,Y,Z Vertex 3 {m}
  0, 0, 4.2672;                           !- X,Y,Z Vertex 4 {m}

BuildingSurface:Detailed,
  Surface 3,                              !- Name
  Wall,                                   !- Surface Type
  Adiabatic Wall,                         !- Construction Name
  ComputerRoom ZN,                        !- Zone Name
  Outdoors,                               !- Outside Boundary Condition
  ,                                       !- Outside Boundary Condition Object
  SunExposed,                             !- Sun Exposure
  WindExposed,                            !- Wind Exposure
  ,                                       !- View Factor to Ground
  ,                                       !- Number of Vertices
  9.144, 6.096, 4.2672,                   !- X,Y,Z Vertex 1 {m}
  9.144, 6.096, 0,                        !- X,Y,Z Vertex 2 {m}
  0, 6.096, 0,                            !- X,Y,Z Vertex 3 {m}
  0, 6.096, 4.2672;                       !- X,Y,Z Vertex 4 {m}

BuildingSurface:Detailed,
  Surface 4,                              !- Name
  Wall,                                   !- Surface Type
  Adiabatic Wall,                         !- Construction Name
  ComputerRoom ZN,                        !- Zone Name
  Outdoors,                               !- Outside Boundary Condition
  ,                                       !- Outside Boundary Condition Object
  SunExposed,                             !- Sun Exposure
  WindExposed,                            !- Wind Exposure
  ,                                       !- View Factor to Ground
  ,                                       !- Number of Vertices
  9.144, 0, 4.2672,                       !- X,Y,Z Vertex 1 {m}
  9.144, 0, 0,                            !- X,Y,Z Vertex 2 {m}
  9.144, 6.096, 0,                        !- X,Y,Z Vertex 3 {m}
  9.144, 6.096, 4.2672;                   !- X,Y,Z Vertex 4 {m}

BuildingSurface:Detailed,
  Surface 5,                              !- Name
  Wall,                                   !- Surface Type
  Adiabatic Wall,                         !- Construction Name
  ComputerRoom ZN,                        !- Zone Name
  Outdoors,                               !- Outside Boundary Condition
  ,                                       !- Outside Boundary Condition Object
  SunExposed,                             !- Sun Exposure
  WindExposed,                            !- Wind Exposure
  ,                                       !- View Factor to Ground
  ,                                       !- Number of Vertices
  0, 0, 4.2672,                           !- X,Y,Z Vertex 1 {m}
  0, 0, 0,                                !- X,Y,Z Vertex 2 {m}
  9.144, 0, 0,                            !- X,Y,Z Vertex 3 {m}
  9.144, 0, 4.2672;                       !- X,Y,Z Vertex 4 {m}

BuildingSurface:Detailed,
  Surface 6,                              !- Name
  Roof,                                   !- Surface Type
  Adiabatic Roof,                         !- Construction Name
  ComputerRoom ZN,                        !- Zone Name
  Outdoors,                               !- Outside Boundary Condition
  ,                                       !- Outside Boundary Condition Object
  SunExposed,                             !- Sun Exposure
  WindExposed,                            !- Wind Exposure
  ,                                       !- View Factor to Ground
  ,                                       !- Number of Vertices
  9.144, 0, 4.2672,                       !- X,Y,Z Vertex 1 {m}
  9.144, 6.096, 4.2672,                   !- X,Y,Z Vertex 2 {m}
  0, 6.096, 4.2672,                       !- X,Y,Z Vertex 3 {m}
  0, 0, 4.2672;                           !- X,Y,Z Vertex 4 {m}

ElectricEquipment:ITE:AirCooled,
  SmallDataCenterHighITE ComputerRoom IT equipment 1, !- Name
  ComputerRoom ZN,                        !- Zone Name
  FlowControlWithApproachTemperatures,    !- Air Flow Calculation Method
  Watts/Area,                             !- Design Power Input Calculation Method
  ,                                       !- Watts per Unit {W}
  1,                                      !- Number of Units
  1076.39104167097,                       !- Watts per Zone Floor Area {W/m2}
  DataCenter Equipment_SCH,               !- Design Power Input Schedule Name
  Always On Discrete,                     !- CPU Loading  Schedule Name
  Curve Biquadratic 5,                    !- CPU Power Input Function of Loading and Air Temperature Curve Name
  0.285714285714286,                      !- Design Fan Power Input Fraction
  0.0001,                                 !- Design Fan Air Flow Rate per Power Input {m3/s-W}
  Curve Biquadratic 6,                    !- Air Flow Function of Loading and Air Temperature Curve Name
  Curve Quadratic 7,                      !- Fan Power Input Function of Flow Curve Name
  22.5,                                   !- Design Entering Air Temperature {C}
  None,                                   !- Environmental Class
  AdjustedSupply,                         !- Air Inlet Connection Type
  ,                                       !- Air Inlet Room Air Model Node Name
  ,                                       !- Air Outlet Room Air Model Node Name
  ComputerRoom ZN CRAC Diffuser Outlet Air Node, !- Supply Air Node Name
  0,                                      !- Design Recirculation Fraction
  ,                                       !- Recirculation Function of Loading and Supply Temperature Curve Name
  1,                                      !- Design Electric Power Supply Efficiency
  ,                                       !- Electric Power Supply Efficiency Function of Part Load Ratio Curve Name
  1,                                      !- Fraction of Electric Power Supply Losses to Zone
  ITE-CPU,                                !- CPU End-Use Subcategory
  ITE-Fans,                               !- Fan End-Use Subcategory
  ITE-UPS,                                !- Electric Power Supply End-Use Subcategory
  9.94,                                   !- Supply Temperature Difference {deltaC}
  SmallDataCenterHighITE SupplyApproachTemp_SCH, !- Supply Temperature Difference Schedule
  -7.21,                                  !- Return Temperature Difference {deltaC}
  SmallDataCenterHighITE ReturnApproachTemp_SCH; !- Return Temperature Difference Schedule

ZoneControl:Thermostat,
  ComputerRoom ZN Thermostat,             !- Name
  ComputerRoom ZN,                        !- Zone or ZoneList Name
  ComputerRoom ZN Thermostat Schedule,    !- Control Type Schedule Name
  ThermostatSetpoint:DualSetpoint,        !- Control 1 Object Type
  SmallDataCenterHighITE ComputerRoom Thermostat 1, !- Control 1 Name
  ,                                       !- Control 2 Object Type
  ,                                       !- Control 2 Name
  ,                                       !- Control 3 Object Type
  ,                                       !- Control 3 Name
  ,                                       !- Control 4 Object Type
  ,                                       !- Control 4 Name
  0;                                      !- Temperature Difference Between Cutout And Setpoint {deltaC}

Schedule:Compact,
  ComputerRoom ZN Thermostat Schedule,    !- Name
  ComputerRoom ZN Thermostat Schedule Type Limits, !- Schedule Type Limits Name
  Through: 12/31,                         !- Field 1
  For: AllDays,                           !- Field 2
  Until: 24:00,                           !- Field 3
  4;                                      !- Field 4

ScheduleTypeLimits,
  ComputerRoom ZN Thermostat Schedule Type Limits, !- Name
  0,                                      !- Lower Limit Value {BasedOnField A3}
  4,                                      !- Upper Limit Value {BasedOnField A3}
  DISCRETE;                               !- Numeric Type

ThermostatSetpoint:DualSetpoint,
  SmallDataCenterHighITE ComputerRoom Thermostat 1, !- Name
  DataCenter HTGSETP_SCH,                 !- Heating Setpoint Temperature Schedule Name
  DataCenter CLGSETP_SCH;                 !- Cooling Setpoint Temperature Schedule Name

ScheduleTypeLimits,
  Temperature,                            !- Name
  ,                                       !- Lower Limit Value {BasedOnField A3}
  ,                                       !- Upper Limit Value {BasedOnField A3}
  Continuous,                             !- Numeric Type
  temperature;                            !- Unit Type

Schedule:Day:Interval,
  DataCenter HTGSETP_SCH Default,         !- Name
  Temperature,                            !- Schedule Type Limits Name
  No,                                     !- Interpolate to Timestep
  24:00,                                  !- Time 1 {hh:mm}
  15;                                     !- Value Until Time 1

Schedule:Week:Daily,
  DataCenter HTGSETP_SCH Week Rule - Jan1-Dec31, !- Name
  DataCenter HTGSETP_SCH Default,         !- Sunday Schedule:Day Name
  DataCenter HTGSETP_SCH Default,         !- Monday Schedule:Day Name
  DataCenter HTGSETP_SCH Default,         !- Tuesday Schedule:Day Name
  DataCenter HTGSETP_SCH Default,         !- Wednesday Schedule:Day Name
  DataCenter HTGSETP_SCH Default,         !- Thursday Schedule:Day Name
  DataCenter HTGSETP_SCH Default,         !- Friday Schedule:Day Name
  DataCenter HTGSETP_SCH Default,         !- Saturday Schedule:Day Name
  DataCenter HTGSETP_SCH Default,         !- Holiday Schedule:Day Name
  DataCenter HTGSETP_SCH Summer Design Day, !- SummerDesignDay Schedule:Day Name
  DataCenter HTGSETP_SCH Winter Design Day, !- WinterDesignDay Schedule:Day Name
  DataCenter HTGSETP_SCH Default,         !- CustomDay1 Schedule:Day Name
  DataCenter HTGSETP_SCH Default;         !- CustomDay2 Schedule:Day Name

Schedule:Year,
  DataCenter HTGSETP_SCH,                 !- Name
  Temperature,                            !- Schedule Type Limits Name
  DataCenter HTGSETP_SCH Week Rule - Jan1-Dec31, !- Schedule:Week Name 1
  1,                                      !- Start Month 1
  1,                                      !- Start Day 1
  12,                                     !- End Month 1
  31;                                     !- End Day 1

Schedule:Day:Interval,
  DataCenter HTGSETP_SCH Summer Design Day, !- Name
  Temperature,                            !- Schedule Type Limits Name
  No,                                     !- Interpolate to Timestep
  24:00,                                  !- Time 1 {hh:mm}
  15;                                     !- Value Until Time 1

Schedule:Day:Interval,
  DataCenter HTGSETP_SCH Winter Design Day, !- Name
  Temperature,                            !- Schedule Type Limits Name
  No,                                     !- Interpolate to Timestep
  24:00,                                  !- Time 1 {hh:mm}
  15;                                     !- Value Until Time 1

Schedule:Day:Interval,
  DataCenter CLGSETP_SCH Default,         !- Name
  Temperature,                            !- Schedule Type Limits Name
  No,                                     !- Interpolate to Timestep
  24:00,                                  !- Time 1 {hh:mm}
  35;                                     !- Value Until Time 1

Schedule:Week:Daily,
  DataCenter CLGSETP_SCH Week Rule - Jan1-Dec31, !- Name
  DataCenter CLGSETP_SCH Default,         !- Sunday Schedule:Day Name
  DataCenter CLGSETP_SCH Default,         !- Monday Schedule:Day Name
  DataCenter CLGSETP_SCH Default,         !- Tuesday Schedule:Day Name
  DataCenter CLGSETP_SCH Default,         !- Wednesday Schedule:Day Name
  DataCenter CLGSETP_SCH Default,         !- Thursday Schedule:Day Name
  DataCenter CLGSETP_SCH Default,         !- Friday Schedule:Day Name
  DataCenter CLGSETP_SCH Default,         !- Saturday Schedule:Day Name
  DataCenter CLGSETP_SCH Default,         !- Holiday Schedule:Day Name
  DataCenter CLGSETP_SCH Summer Design Day, !- SummerDesignDay Schedule:Day Name
  DataCenter CLGSETP_SCH Winter Design Day, !- WinterDesignDay Schedule:Day Name
  DataCenter CLGSETP_SCH Default,         !- CustomDay1 Schedule:Day Name
  DataCenter CLGSETP_SCH Default;         !- CustomDay2 Schedule:Day Name

Schedule:Year,
  DataCenter CLGSETP_SCH,                 !- Name
  Temperature,                            !- Schedule Type Limits Name
  DataCenter CLGSETP_SCH Week Rule - Jan1-Dec31, !- Schedule:Week Name 1
  1,                                      !- Start Month 1
  1,                                      !- Start Day 1
  12,                                     !- End Month 1
  31;                                     !- End Day 1

Schedule:Day:Interval,
  DataCenter CLGSETP_SCH Summer Design Day, !- Name
  Temperature,                            !- Schedule Type Limits Name
  No,                                     !- Interpolate to Timestep
  24:00,                                  !- Time 1 {hh:mm}
  35;                                     !- Value Until Time 1

Schedule:Day:Interval,
  DataCenter CLGSETP_SCH Winter Design Day, !- Name
  Temperature,                            !- Schedule Type Limits Name
  No,                                     !- Interpolate to Timestep
  24:00,                                  !- Time 1 {hh:mm}
  35;                                     !- Value Until Time 1

ZoneControl:Humidistat,
  Zone Control Humidistat 1,              !- Name
  ComputerRoom ZN,                        !- Zone Name
  DataCenter Humidity Setpoint Schedule;  !- Humidifying Relative Humidity Setpoint Schedule Name

ScheduleTypeLimits,
  Percent,                                !- Name
  0,                                      !- Lower Limit Value {BasedOnField A3}
  100,                                    !- Upper Limit Value {BasedOnField A3}
  Continuous,                             !- Numeric Type
  percent;                                !- Unit Type

Schedule:Day:Interval,
  DataCenter Humidity Setpoint Schedule Default, !- Name
  Percent,                                !- Schedule Type Limits Name
  No,                                     !- Interpolate to Timestep
  24:00,                                  !- Time 1 {hh:mm}
  8;                                      !- Value Until Time 1

Schedule:Week:Daily,
  DataCenter Humidity Setpoint Schedule Week Rule - Jan1-Dec31, !- Name
  DataCenter Humidity Setpoint Schedule Default, !- Sunday Schedule:Day Name
  DataCenter Humidity Setpoint Schedule Default, !- Monday Schedule:Day Name
  DataCenter Humidity Setpoint Schedule Default, !- Tuesday Schedule:Day Name
  DataCenter Humidity Setpoint Schedule Default, !- Wednesday Schedule:Day Name
  DataCenter Humidity Setpoint Schedule Default, !- Thursday Schedule:Day Name
  DataCenter Humidity Setpoint Schedule Default, !- Friday Schedule:Day Name
  DataCenter Humidity Setpoint Schedule Default, !- Saturday Schedule:Day Name